<tlLogics>
    <tlLogic id="center" type="static" programID="0" offset="0">
        <!-- Phase 1: Nord-Sud tout droit (virages à droite toujours verts) -->
        <!-- G = vert prioritaire pour virage à droite (toujours) -->
        <!-- g = vert normal pour tout droit -->
        <!-- r = rouge pour virage à gauche -->
        <phase duration="31" state="GggrGggrGggrGggr"/>
        <phase duration="3"  state="GyyGGyyGGyyGGyyG"/>

        <!-- Phase 2: Est-Ouest tout droit (virages à droite toujours verts) -->
        <phase duration="31" state="GrrrGrrrGggrGggr"/>
        <phase duration="3"  state="GrrrGrrrGyyGGyyG"/>

        <!-- Phase 3: Virages à gauche Nord-Sud -->
        <phase duration="15" state="GrrgGrrgGrrrGrrr"/>
        <phase duration="3"  state="GrryGrryGrrrGrrr"/>

        <!-- Phase 4: Virages à gauche Est-Ouest -->
        <phase duration="15" state="GrrrGrrrGrrgGrrg"/>
        <phase duration="3"  state="GrrrGrrrGrryGrry"/>
    </tlLogic>
</tlLogics>