<nodes>
    <!-- Centre de l'intersection -->
    <node id="center" x="0.0"    y="0.0"    type="traffic_light"/>

    <!-- Noeuds aux extremites — 300m-->
    <node id="north" x="0.0"    y="300.0"  type="priority"/>
    <node id="south" x="0.0"    y="-300.0" type="priority"/>
    <node id="east"  x="300.0"  y="0.0"    type="priority"/>
    <node id="west"  x="-300.0" y="0.0"    type="priority"/>
</nodes>